@<TRIPOS>MOLECULE
D:\Documents\PROJETO
   33    34     1     0     0
SMALL
bcc


@<TRIPOS>ATOM
      1 S          -0.8790   -1.4290   -0.0740 S.3       1 LIG     -0.300200
      2 O          -4.7320   -1.2760   -0.7270 O.2       1 LIG     -0.611100
      3 N          -3.6270   -1.3330    1.2540 N.am      1 LIG     -0.665000
      4 H          -4.4600   -1.6170    1.7450 H         1 LIG      0.318500
      5 H1         -2.7470   -1.2830    1.7440 H         1 LIG      0.318500
      6 C           0.3930   -0.1980   -0.6770 C.3       1 LIG      0.122000
      7 H2          0.3210   -0.2180   -1.7660 H         1 LIG      0.081700
      8 C1          1.7770   -0.7110   -0.3070 C.ar      1 LIG     -0.081800
      9 C2          2.8010   -0.6220   -1.2570 C.ar      1 LIG     -0.116750
     10 H3          2.5830   -0.2200   -2.2410 H         1 LIG      0.138000
     11 C3          4.0950   -1.0400   -0.9580 C.ar      1 LIG     -0.127750
     12 H4          4.8720   -0.9630   -1.7090 H         1 LIG      0.135250
     13 C4          4.3870   -1.5610    0.3010 C.ar      1 LIG     -0.122000
     14 H5          5.3920   -1.8920    0.5360 H         1 LIG      0.134500
     15 C5          3.3740   -1.6630    1.2530 C.ar      1 LIG     -0.127750
     16 H6          3.5880   -2.0770    2.2320 H         1 LIG      0.135250
     17 C6          2.0800   -1.2420    0.9520 C.ar      1 LIG     -0.116750
     18 H7          1.3020   -1.3430    1.6990 H         1 LIG      0.138000
     19 C7          0.1130    1.2240   -0.2220 C.ar      1 LIG     -0.081800
     20 C8          0.1740    1.6050    1.1240 C.ar      1 LIG     -0.116750
     21 H8          0.4200    0.8700    1.8810 H         1 LIG      0.138000
     22 C9         -0.0760    2.9190    1.5030 C.ar      1 LIG     -0.127750
     23 H9         -0.0200    3.1960    2.5500 H         1 LIG      0.135250
     24 C10        -0.3960    3.8810    0.5430 C.ar      1 LIG     -0.122000
     25 H10        -0.5910    4.9050    0.8400 H         1 LIG      0.134500
     26 C11        -0.4630    3.5160   -0.7980 C.ar      1 LIG     -0.127750
     27 H11        -0.7120    4.2530   -1.5530 H         1 LIG      0.135250
     28 C12        -0.2110    2.1960   -1.1750 C.ar      1 LIG     -0.116750
     29 H12        -0.2630    1.9200   -2.2230 H         1 LIG      0.138000
     30 C13        -2.4120   -0.7070   -0.7870 C.3       1 LIG     -0.108300
     31 H13        -2.3530    0.3820   -0.6990 H         1 LIG      0.098700
     32 H14        -2.5090   -0.9720   -1.8390 H         1 LIG      0.098700
     33 C14        -3.7000   -1.1520   -0.0920 C.2       1 LIG      0.673100
@<TRIPOS>BOND
     1   10    9 1   
     2   29   28 1   
     3   32   30 1   
     4    7    6 1   
     5   12   11 1   
     6   27   26 1   
     7    9   11 ar  
     8    9    8 ar  
     9   28   26 ar  
    10   28   19 ar  
    11   11   13 ar  
    12   26   24 ar  
    13   30   31 1   
    14   30   33 1   
    15   30    1 1   
    16    2   33 2   
    17    6    8 1   
    18    6   19 1   
    19    6    1 1   
    20    8   17 ar  
    21   19   20 ar  
    22   33    3 am  
    23   13   14 1   
    24   13   15 ar  
    25   24   25 1   
    26   24   22 ar  
    27   17   15 ar  
    28   17   18 1   
    29   20   22 ar  
    30   20   21 1   
    31   15   16 1   
    32    3    5 1   
    33    3    4 1   
    34   22   23 1   
@<TRIPOS>SUBSTRUCTURE
     1 LIG         1 TEMP              0 ****  ****    0 ROOT
